216
NON_ORTHO 14.100000000 0.000000000 0.000000000 0.000000000 14.100000000 0.000000000 0.000000000 0.000000000 14.100000000 36.4742 42.10382 39.367261 -0.727807 0.342334 0.310865 -22343.9941179302
Si 2.07689 3.81010 13.15109 0.04688666961788074 -0.06876212922966109 -0.041698794367066735
Si 11.84425 1.27348 2.46310 -0.018067076503230264 -0.0014567939532695857 -0.03750676091197071
Si 4.91118 10.95980 3.91712 -0.016518434385588393 0.008443069097510601 -0.015428799725850192
Si 12.95630 12.26076 0.92451 0.010099583704623797 -0.008322672742306532 -0.01145377530446798
Si 10.73542 3.27191 4.48002 -0.05506813771875023 0.020794362183496617 -0.02137213244890009
Si 14.04244 2.34936 1.75202 0.04627611171641297 -0.06161743885209874 -0.07483212024078144
Si 11.42442 13.92134 0.39961 -0.03885640191463872 -0.028932502376209968 0.02774738296375783
Si 1.04277 13.81680 1.53826 -0.02613448796974797 -0.017956092494322232 -0.03029005830644509
Si 0.26563 3.92777 5.07355 -0.033027670341842015 -0.0051456558214571825 0.012536895220385572
Si 1.92933 6.38141 7.34756 0.030755580508169365 -0.0746682209544529 -0.009104111401838935
Si 2.44803 2.77248 9.08391 -0.002690258598969549 0.007919653187267102 0.014182966790389322
Si 13.04035 3.46749 3.07327 -0.043087951666580915 0.07311032206648684 0.03133300072763621
Si 5.45178 4.92155 9.21519 -0.014223611013031304 -0.00687614680317808 -0.011326475265513716
Si 3.03142 0.48089 2.07294 0.0238762055035757 0.0004334346575332397 0.029939506747907126
Si 2.72208 13.42844 4.33630 0.040353645620585486 0.045061452316308606 0.021086222706659708
Si 0.21490 13.32054 5.16822 0.030611769969204082 0.039606530909839247 -0.02666692728635792
Si 5.37620 5.09743 11.61157 0.03090512791109608 -0.08431470908810276 -0.009889478354660176
Si 13.99581 3.50049 12.17488 -0.012181559700713671 0.05126659995296089 0.01990985444262331
Si 2.98680 3.03096 1.47444 -0.007403918840632968 -0.006235932232079201 -0.06795482606481107
Si 3.32606 0.78896 6.65667 -0.1004655757932337 0.0696771687550071 -0.061748647737345376
Si 2.94444 3.71916 11.16673 0.01055584913602387 0.033689412738043614 -0.018085978983808256
Si 0.80490 4.09438 10.08846 0.04316610914543169 0.06090886808837472 0.007768900070558662
Si 1.30186 13.17807 12.89794 -0.01774406189170715 0.020765172241781014 0.024864599099642063
Si 1.53676 1.73820 0.08035 0.0035664819193426283 -0.027898349997427546 -0.015006994372211644
Si 2.06094 7.61086 13.66737 -0.0035303688468803513 0.047818997523096936 0.02088043458991452
Si 13.95424 8.89573 12.68892 0.03847901350095915 -0.032167490793564464 -0.02114965880917556
Si 2.63164 5.96992 1.06811 0.01607272867327664 -0.00793402451766539 -0.0023215240987233287
Si 1.08152 5.78564 13.16213 -0.04725602642201429 0.03770865962942002 -0.07282083407689423
Si 3.37164 6.50596 3.12271 -0.034030376927317224 0.03405102963757836 -0.02970384804456955
Si 3.87846 5.12726 13.05258 -0.03292765443894838 0.03640557473632374 0.06185498391409483
Si 0.54976 5.91241 2.63468 -0.02169664447915212 0.016162865501958737 -0.01946576283101935
Si 0.87644 4.34338 0.57154 -0.0850374372652638 -0.015781237643046665 0.1274509281999456
Si 4.08212 7.02603 8.01454 0.03922379457212785 -0.03147698628956981 0.0053421482738852085
Si 1.46778 8.44723 6.77367 -0.04062917066670586 0.05707261743386963 -0.032729295074858326
Si 5.98491 5.55514 6.89382 -0.0041409461953445985 0.00912896466333963 -0.006884975739579735
Si 0.04680 6.37371 5.84258 -0.015551724190596587 0.005632550272312339 -0.08596352268461012
Si 2.11083 8.08109 8.91673 -0.05764200604379047 0.006289761518334227 0.01745805491448437
Si 3.75990 5.33590 5.72320 0.039866206653828916 0.022172142990070334 0.06633648591178697
Si 1.74481 5.38499 4.55766 -0.04299093060114511 0.18346117566314118 0.04023077949682853
Si 3.99549 2.75525 7.24228 0.03145258030898814 0.06330819962001219 0.005626482809410762
Si 3.11725 4.77963 8.81260 0.013185647022938915 0.05494943325223987 -0.01013114617990989
Si 3.09611 6.36453 11.02413 -0.08489335446834781 -0.027762882219951927 0.006052197009341673
Si 4.93735 3.29265 13.93796 -0.06640906210264814 0.013629952551504147 0.056371125376864104
Si 12.87965 4.69979 9.25799 -0.01451134877294075 -0.023848143487655907 -0.014246772385838286
Si 3.57346 9.41855 13.56950 -0.003132561086897403 0.015123306858155038 -0.005495818440065561
Si 0.71549 6.50500 9.93533 0.011070144404918525 0.002231445611030671 0.03165897128262419
Si 13.02348 8.05217 9.08006 -0.0045937500613713374 0.045037882556575544 0.029908838834459085
Si 13.15569 6.27861 11.71347 0.05467596958774631 0.0013170283895720175 0.0037748953806125375
Si 6.93076 9.37000 1.54402 -0.04682340853833319 0.004053259688218908 -0.011883787290620841
Si 13.35675 13.44134 2.89945 0.005497413093776873 -0.009175442984925435 -0.0015424190787684572
Si 3.38860 11.42556 6.08322 -0.0002723551856942311 -0.004214066902107205 -0.010585525252651462
Si 12.88902 9.82133 0.67703 0.018002609709900995 0.013657839544455633 0.007852386026444799
Si 1.46115 1.71946 3.34541 0.012238344930433567 -0.008167777415347978 -0.038354222124550745
Si 1.38476 10.68302 1.72577 -0.051840072432142406 0.03850472243030494 -0.02602124810924833
Si 0.27938 9.80373 4.33983 0.1148513358629104 -0.0266009047333103 0.05081146244735661
Si 2.72015 9.99436 4.20345 0.02883340048215086 -0.04097633844785641 0.009100358131518407
Si 1.19552 1.65897 5.42414 0.01972423286122728 -0.008126510888818656 0.004191236128240369
Si 13.58874 12.84666 8.35713 0.016397668537451213 0.010192306983837654 0.0028387169700934164
Si 3.67632 9.15110 7.16400 -0.01304481187443498 4.3716848085728766e-05 -0.08780217786074954
Si 13.48530 10.92023 6.34613 0.07344088211264395 -0.046200326771132685 0.00028906015567005004
Si 2.92988 12.31308 9.25904 -0.03597188726783627 0.008469964293641635 -0.001259231916035191
Si 3.29710 11.97873 2.26756 0.03241872654108204 0.021445311496652138 -0.013442775210389762
Si 1.52398 11.77333 3.75251 -0.06479081918460645 -0.00029493314860683386 -0.0013246516121919487
Si 3.42682 10.25766 8.92280 -0.08076891877301426 0.17888177748517164 -0.06858630893449068
Si 1.68612 0.92728 8.55410 -0.05399734719860058 -0.049446827810402987 -0.026041823031523553
Si 1.34758 11.04243 10.97380 -0.05247573640606511 0.002365688227728084 -0.01704365886650448
Si 5.87050 11.53999 0.69675 -0.061976391513115826 -0.011883903972599717 -0.026819158374798792
Si 2.17282 8.54689 11.51970 -0.04719572128593163 -0.028534986321174214 -0.0017793223898807113
Si 2.75602 11.44710 13.98964 0.003767369392975003 0.0421009388072646 0.001295500564469303
Si 1.48570 12.70959 6.80452 0.021010146056432224 -0.02387408578095945 0.04247902731281742
Si 3.26771 10.43375 11.39287 0.09643998918100502 0.028119870734324582 0.033265623790764164
Si 5.65238 11.89154 12.36943 -0.13608726154846865 -0.10106053720352498 0.025357210967462164
Si 8.21492 2.32443 13.13189 0.04990816890788419 -0.016124418789918927 -0.009923199446555486
Si 1.97660 4.09772 3.00007 -0.05155206241428224 -0.027859767156412387 -0.10020138834606082
Si 7.83333 2.88584 4.35532 0.03546502075159676 -0.019937741435574793 -0.021026287063510146
Si 7.75089 11.72261 1.63487 0.06035322850496483 0.029457474046171817 0.013603368507316783
Si 4.28032 4.27665 3.28003 0.016355701919048633 -0.00999175010914543 -0.025549833467590786
Si 7.25884 3.86269 10.88351 -0.007371131204568673 0.025404428274914185 -0.021649952240605036
Si 6.22484 2.74737 12.38763 -0.035060017602916424 -0.04974094418515769 -0.04687490418501069
Si 4.74876 2.18826 2.33511 0.06268344541111445 -0.024121218212219873 0.011613474039556948
Si 9.77835 3.35131 6.63773 -0.01726002614933447 -0.027882345119324987 -0.015629764987468483
Si 5.22646 0.90319 8.41657 0.032458592883864844 -0.01955965293002197 -0.0089092330501187
Si 5.40426 10.87004 8.07259 -0.029150542100737187 0.02138173926516092 0.08222046203723439
Si 5.22783 0.24099 3.72353 0.019462359606635452 -0.029982445716133677 -0.0001776483128394717
Si 8.23356 0.48054 8.30983 0.026279037494579476 0.04132333120603864 0.039792619219150796
Si 5.82173 1.53436 6.21337 0.015036320442902604 0.0025063483532637054 -0.023728913952240603
Si 5.61927 13.01969 5.83280 -0.0122984944905444 0.015052403108991082 -0.03007781378686874
Si 7.76685 14.07039 6.23491 -0.022400956350647153 0.06847205783017411 -0.041448647651352005
Si 10.07708 4.63087 8.43393 0.02698745268233167 -0.017404186734236382 0.017527558479901804
Si 14.08214 1.40265 11.71940 0.051955237545293506 -0.11233026613331176 0.07978202259567681
Si 8.37594 0.03458 13.90104 -0.033702247755720026 0.003439473585335557 -0.07133185534445122
Si 5.09309 12.40184 10.13085 -0.07579237403294206 0.09574065574060871 -0.029150892146673817
Si 2.83996 1.46980 11.80744 -0.031582622374446 -0.008766258732002027 0.042381947906392166
Si 4.41537 2.23837 10.35886 0.06427597939981036 0.05454269932087286 0.0013543082818230593
Si 13.75790 2.33936 10.01599 -0.0453149439154178 0.016148922005482996 -0.114318838205311
Si 3.49120 0.40274 9.63233 -0.015159303248638437 -0.019985328235959925 0.0231255708864667
Si 8.14221 5.66030 4.51578 -0.031599191215446465 -0.03790126268255216 -0.026144250361980637
Si 5.22614 6.31722 4.19517 0.06072305203701389 0.015152710716831915 0.01610240478990423
Si 9.86922 6.22268 0.72320 0.07650965705108888 0.03980415128806308 -0.002554421328560824
Si 5.36342 5.57539 1.56018 -0.029625748906708216 -0.040835056018433444 -0.028690231694069392
Si 7.96436 6.92534 6.23567 -0.015533502354895373 0.036858806436273026 0.03279047532578257
Si 7.16310 5.24156 12.89295 0.010628055833951947 0.013139304830328463 0.028488955280507433
Si 6.45232 8.27344 3.75559 0.018352713987519934 0.03574984146203429 0.030583221778372298
Si 6.84913 6.98840 2.21491 0.0730433660576082 -0.04462906779658525 -0.03777322365773169
Si 10.10539 5.67327 5.92926 0.000922993346906076 0.0026505089381656213 0.010517382976987585
Si 7.17184 3.43641 6.59786 0.022704582306680283 0.005465792277501341 0.004468511404043893
Si 5.09038 6.84098 10.64344 0.0641707905958532 0.09446119894823492 -0.089804226701309
Si 2.71081 3.69674 4.89347 0.07529330576229079 -0.15820613921518187 0.05366301443512645
Si 3.51529 7.60440 5.29491 0.021047562077658625 0.03171651494520679 0.01580041238157537
Si 3.87234 1.62553 4.69272 -0.011168312843146622 0.03880963188810572 -0.011675004336417825
Si 7.66746 4.66319 8.70213 -0.012235952949866598 0.04998523735493212 -0.031163286789360343
Si 8.99396 6.61409 8.51810 0.014883992119479333 -0.09881069473382477 -0.03728286764150319
Si 10.29458 11.75484 10.08369 -0.04738457106874325 -0.0464862948543625 0.07745402264712582
Si 4.47925 7.53597 12.82471 -0.01150706007482158 -0.04583748471081973 0.029003775618307033
Si 8.71777 7.75753 12.39235 0.03145662528425586 0.026122119679987066 -0.03925623216225552
Si 4.03523 13.31811 7.48622 0.05021533421727658 -0.15035081669226866 0.05283801450348015
Si 5.08657 7.99592 1.10088 0.010725076899387755 -0.11709328285203993 -0.037942062481165974
Si 6.08232 9.81105 13.43462 0.009876176609068258 0.030903980538303795 0.03602847802759137
Si 6.61255 2.51836 8.68878 0.006180547186105822 0.011087763383728877 0.01480849887914624
Si 7.71809 6.82394 10.46168 -0.009858888229198056 -0.04431206230697428 0.059506156232314394
Si 9.31229 14.00467 1.59709 0.012339799911066684 -0.07462359009753264 0.05720382631911625
Si 8.97768 8.01029 1.27234 -0.03201319832349677 -0.028942031404484883 -0.01951212447062628
Si 9.43182 10.82038 4.21695 0.027249500959891804 0.026731841360606214 0.00476231662685492
Si 4.40367 9.76793 1.65465 -0.03173580636571437 0.1104714444218232 0.05876627580425851
Si 5.96916 13.37493 1.78053 -0.008123807756308016 0.04397973258413753 0.010436075084707144
Si 8.86085 9.81590 2.25476 0.00959435073608855 0.10397459183797966 0.009493576400332214
Si 9.20594 9.56613 13.60958 -0.03443397989225104 0.0022713508478064337 0.02737633427093056
Si 6.14845 8.59192 11.80295 0.022150128990055636 -0.004777854777041975 -0.11894800124727134
Si 8.60514 12.16552 6.38250 0.0417435224589694 -0.0344414864328921 -0.043454488656224956
Si 6.36844 10.93756 6.30937 0.09148790876250396 0.08740287268203766 -0.026248369581131435
Si 11.03663 11.97747 6.81870 -0.1062473623165291 0.013615795138067132 -0.16623278977707873
Si 5.67069 9.32429 5.42115 -0.06593284405286019 -0.09982965900835677 -0.020151113880946956
Si 8.77866 10.86526 8.04727 0.0013671432994994744 -0.013368448789845432 0.04758370831269247
Si 7.12635 11.58970 3.99197 -0.002919888733398502 -0.05230230809146166 -0.007429900027929469
Si 8.27514 9.66338 5.65577 -0.02288260011245287 -0.03320792455220973 0.02138840958495336
Si 5.83474 8.69358 7.68079 -0.05114620359775681 0.012832781271819898 -0.054960284676275374
Si 5.45379 0.32458 11.12645 0.009049834834664884 0.017348743347273567 0.020469714024269236
Si 3.15413 13.27237 11.61313 0.024237744615124537 -0.023626778326730703 0.02078010753507721
Si 7.80929 12.85936 10.11447 0.020728242395466605 -0.010410541178329671 0.013507728178631013
Si 3.87090 8.75595 9.87830 0.11985502861006783 -0.16586782799414948 0.1347236770493249
Si 3.82718 0.10441 0.04594 0.010892262728121303 -0.012941392747157441 -0.043949064670689486
Si 6.29517 10.88559 10.31610 0.07667544269607592 -0.13194896014464524 0.008363628116892183
Si 8.05055 11.30431 12.07618 -0.006712850373740417 -0.041043527820692795 0.0045641906267226235
Si 10.55107 11.11501 0.14833 0.0477653627068067 -0.04660369637210875 -0.018879027500238867
Si 12.00414 2.88635 0.76974 -0.012808433632227669 0.027792966723505584 -0.023608420362054138
Si 9.37538 1.16072 3.35551 0.007044791156647581 0.038425864859580904 0.03784830851113871
Si 12.25690 0.61685 4.46282 -0.0068776053279140355 -0.07462738226184613 -0.028353506950028296
Si 7.27575 1.68091 1.99387 0.003015684638056108 0.0017010093350581005 0.027864901163482947
Si 7.07124 3.62449 0.59413 -0.06331815648220965 -0.01819355976833239 -0.02668063741887591
Si 9.75409 1.90318 0.87914 0.006306952663222031 0.0637975054984308 0.016280325360694414
Si 12.57780 11.40720 12.56065 -0.09335489821251386 -0.009132717933660156 0.05073631925296016
Si 10.49843 12.01637 1.94245 0.007523128929051793 0.022491307096290523 0.07263175093012486
Si 1.71578 3.43926 6.87579 -0.02821887539340129 0.014962655220238574 0.04192665482481607
Si 6.84347 12.77570 8.11139 -0.02858729874170384 -0.010088382234651652 -0.013076860524633057
Si 12.65625 2.51603 5.03146 0.031248950808852167 0.03288261519510205 0.06437799834334139
Si 10.56843 1.57387 8.37245 -0.013561810275840273 0.012396643481776019 -0.020022647022203927
Si 10.76511 1.85499 11.02636 0.035942814008099545 0.04264257655320931 -0.11452775728848937
Si 7.96134 4.49403 2.25663 0.0013919382200107307 0.027319510147217705 0.08648304919555774
Si 9.91336 0.91574 5.73748 -0.027125001288430584 0.01958543964735368 -0.004914586609288753
Si 12.44547 0.64381 9.33037 0.0014725071264249541 -0.011952279612221348 -0.003518836777968057
Si 11.24286 5.40150 10.74693 -0.004922287619894602 -0.035743385059203124 -0.021584688120420113
Si 10.53985 1.31300 12.92653 -0.010204072416707701 -0.038705045941039413 0.08311018157316419
Si 13.08958 0.77890 13.60907 0.044005110914543163 0.017879996397098273 -0.001222360410710217
Si 7.72560 1.04336 10.94166 0.0033063977884269092 0.013424339457727275 -0.0014712819656467508
Si 9.49549 3.73137 11.40439 0.015024866161976229 -0.020776626522707394 0.021370012726283836
Si 1.05241 13.47340 10.18900 0.021562382415458225 0.029425600418942058 -0.004570880393511542
Si 8.79248 2.97613 9.45017 0.03953887480908736 -0.07295632130136633 -0.016074926183878815
Si 12.01377 13.70883 11.55533 -0.030794066114202136 0.027144526072895917 0.02298286882630074
Si 13.62024 7.40753 0.89375 0.07269042251850327 -0.009832206950028295 -0.013543082818230594
Si 9.84860 6.39838 3.32630 -0.020419112939429794 -0.040042046395995796 -0.03623232144468862
Si 2.25006 8.76259 1.73017 0.0127179856516019 -0.06822741461446305 0.014799397684793872
Si 9.08868 4.43637 0.29753 0.006996504264389189 -0.08657184418148274 -0.06517520851701859
Si 9.83345 8.49478 3.60208 -0.034275039590024765 -0.01416270302005777 0.10809284338843278
Si 11.16274 6.97650 12.40317 0.004454509566578713 0.010614831876345942 0.026035716674629016
Si 12.71946 5.35007 14.08077 -0.003409116823831188 -0.009330980062767811 0.0004461724402272577
Si 10.35463 4.43804 2.27003 0.027197460797312892 -0.0372359031450054 0.004063586043349478
Si 12.63439 8.18173 6.68289 -0.0011183967675312551 0.014837358221921691 -0.0049627957135612265
Si 9.41830 8.62369 8.31015 0.020614866405991604 0.07353788373108329 -0.007352714898902665
Si 13.85533 6.39379 7.87389 -0.021507736355351064 -0.03331865575016353 0.04534380325819325
Si 6.04892 4.12148 4.60958 -0.004535195154971813 0.012235194517003903 0.014536785444335827
Si 10.25932 8.62962 6.30373 0.02748549026216953 -0.009241660007937849 -0.03775566301991077
Si 1.48197 7.82877 4.37865 -0.026267097038741114 -0.00035803865218254113 -0.03321035542676966
Si 12.19061 5.59913 3.33751 0.04198559867114518 -0.05945036279941495 -0.05395273578867679
Si 11.52026 6.39446 8.27426 -0.011365194235504238 0.017789412287497152 -0.013413624162667117
Si 8.25764 9.66976 10.11310 -0.07301899897101949 -0.00037254611155618597 -0.04169144340239752
Si 9.36765 5.70247 12.24234 -0.010287772289555113 -0.02107667423138831 0.019989100953276932
Si 11.66359 3.40838 12.40861 0.018938146369536293 0.028534111206332636 0.020273396594809527
Si 12.34994 4.69235 6.32405 -0.014843697942773983 0.025476071009944357 -0.012554650328171279
Si 11.60109 7.89931 0.45421 -0.06166798159594875 -0.019928834711187223 0.006918424573524332
Si 11.13362 9.73969 9.46020 0.00016724416972298375 -0.04425644389704315 0.0033427831188398978
Si 7.29499 7.86171 8.70037 0.005448426109645221 0.011719479617366248 0.015487160162284925
Si 10.18135 7.45640 10.23121 0.022146511848710464 0.015008880730870148 0.01789843214976076
Si 11.73780 9.16034 12.61915 -0.008119723887047339 0.025323839921503482 -0.011820565105066258
Si 7.56155 13.64568 3.86206 0.012158456668896124 0.05993192877323474 -0.008405225242361657
Si 13.22314 10.77792 2.92344 -0.03348691116370345 0.06238207530667294 -0.07750849368426468
Si 7.00280 7.50488 13.54292 -0.045315799583262886 -0.03165982695046929 0.0746807837141786
Si 10.23005 12.98389 3.95909 0.00772528045745533 0.011945259246492278 0.025640359236202472
Si 5.96124 1.19322 0.15285 -0.005236356613037182 -0.03600928384206619 -0.011333515078239266
Si 11.12886 9.31798 2.24230 0.06773892550989657 0.04475245898924715 -0.04022813470530733
Si 13.03588 7.83610 3.03484 0.024463368668278737 0.003096195203480894 0.00034236437302013117
Si 0.03981 0.97052 7.05595 -0.04708115902967138 -0.04567202966477285 0.026844595046193874
Si 12.21195 11.02893 8.05355 0.06910161544720227 -0.0777860606650154 0.09905599914741614
Si 0.82078 10.47474 8.57921 -0.0018030088315926411 -0.009616948145997633 -0.007631584828417501
Si 12.35989 9.55155 4.53837 -0.11585427581234334 -0.01712757265631316 0.04819329386433627
Si 11.83352 0.13811 6.48301 0.017036074537877505 -0.01339584960788493 0.07402633394165681
Si 12.46799 12.26417 5.03700 -0.07776918067207125 -0.0033154600887863174 -0.06011436104720815
Si 11.52949 7.05174 4.58935 0.0027418320336329623 0.06297246667279155 0.10194045545322915
Si 10.93139 12.94162 8.59200 0.02184551123720205 0.11152127107976803 0.003485640754977693
Si 13.52563 12.30990 10.96510 0.01988848219349243 0.029720708590517207 -0.05162405519524904
Si 7.01466 13.23618 12.39783 0.08933429003138389 0.13117448350985247 0.021559212555032077
Si 0.44511 11.01798 13.33712 0.0496279376886158 0.0010102714671056984 0.03181763932689975
Si 9.86074 14.09810 10.38735 -0.02737011123205715 -0.02442445522832342 -0.0024904990511329813
Si 10.06413 12.20316 12.53340 0.011836686665147693 0.06389573227764833 -0.05182233677135318
Si 13.20967 2.95399 7.42313 -0.00746692710922628 0.010885767431297174 0.03384080760563587
Si 13.13233 10.21579 10.48043 0.014463898101530974 -0.048638318931771236 -0.006726074331346419
Si 9.81997 9.64873 11.45196 0.056403115686072744 0.009768848635498355 0.020054345626465377