128
NON_ORTHO 9.87089656 0.0 0.0 -4.93544828 8.548447179 0.0 0.0 0.0 13.54225 -16.445515 -12.992759000000001 -1.039465 -1.13229 -0.278355 0.446903 -26129.691104705194
C 3.18516 1.49091 8.59129 -0.007272515485421551 -0.025448572956922464 0.0013735024673482434
C 6.53705 3.69156 5.54201 -0.0162861011186488 -0.01741462977134583 -0.003463821224927787
C -1.79624 7.22503 8.43387 0.032309006586945174 -0.022327641173919752 -0.0038111445820501696
C 5.43607 2.7906 1.75901 0.005865155797202643 -0.023603228013994133 -0.004410364884570437
C 3.1895 2.93045 8.58023 -0.006181072255010768 -0.024939081096158226 -0.0044340124322894085
C 5.49778 2.67638 11.75717 -0.03715652050537642 -0.015351809066788182 0.006655598416105015
C -2.14236 7.30529 5.13141 0.01861832106543581 0.009584102168943896 0.007927607008827182
C 4.22113 0.63024 11.70535 -0.019855733451421095 -0.06261998986160212 -0.010075391641003401
C 6.52399 5.10097 5.30874 0.029301120194477316 0.0373103462475286 -0.0031541861469825145
C 4.21936 4.75096 11.81112 -0.006534229711076975 0.017160768679303523 -0.010928161883622304
C 1.62433 0.99673 4.96239 0.028385302789272142 -0.006693383930264521 0.023680413143020936
C 4.19391 3.41333 1.73872 0.022607852946191664 0.04905596262816318 -0.013893789952740394
C 1.97538 3.66897 8.58206 -0.016318519261779987 -0.008114589879976774 -0.016610204761974758
C 4.38384 0.57006 1.58213 -0.02434423636784583 0.007340793890060783 0.008336363427828042
C 2.94699 1.22545 11.64132 0.02215267654659444 0.03304589217754323 0.018732474934769986
C 5.37521 5.94188 5.17986 0.00015166712554297095 0.010755628130856919 0.01862897801950653
C 1.92334 0.78179 8.52139 0.04000027424755801 0.015280166331758013 -0.007127771490625251
C 2.99952 2.66927 11.7704 0.028104118667176256 -0.015928548641378243 -0.0045248882468377225
C 2.96993 2.70405 1.70337 0.004158993008077497 -0.010392649941568606 -0.0003778356945985873
C 1.77269 3.31958 11.80938 -0.020089797501047352 0.008499426493307951 -0.012442110559544896
C 4.12377 8.11308 5.21555 -0.03303900794078952 -0.01347978284469009 -0.020070836679479922
C 0.73226 2.94794 8.53082 0.012506032836972738 0.0028733715178197367 0.00046320800914322665
C 1.69058 4.7366 11.89818 0.009181802152774204 0.010891154249321975 0.018721156782818965
C 9.00702 0.97754 5.22729 0.014339223407101436 0.014983891340394098 0.006445356937166039
C 1.71712 4.82551 1.59387 0.023247950835311667 0.0034626738521355014 -0.01320314931977039
C 7.6986 1.65489 5.44478 0.02452909951637916 -0.01157809995296089 -0.012460429630228507
C -0.52486 5.04323 8.56698 -0.0025012532401860986 0.029150678229712543 -0.02157058904797254
C -2.10256 5.8687 5.21286 0.014055083341540677 -0.0006924686506390703 -0.01922635085736125
C 6.64245 0.51152 11.78269 0.015591785003344185 0.01140801652175191 -0.01132509452876368
C -0.76222 5.2811 5.11175 0.01175246172339534 -0.013973911578235592 0.013883074657680235
C 6.69322 4.77064 11.86743 0.022372583182783682 0.034244507805552084 0.000880151613661921
C 4.0417 0.88559 5.21294 0.03717913736228198 0.0210424864115775 0.012512858732737013
C -0.49982 7.91009 8.38931 -0.02204774055359151 -0.0037589293965029358 0.01415966928860698
C 2.97106 6.93568 1.23311 -0.027658471295853942 -0.017798844080789668 0.012612544036690505
C 1.71322 7.67039 11.54784 -0.05091599005343349 0.0071422789499988966 0.0007458506559750691
C 0.70378 7.19359 8.40301 0.006405354465407879 -0.0018727652079643087 -0.00045241492609715046
C 7.89721 2.71681 1.77356 -0.021956825845050234 0.016342264044481355 -0.01752296898873266
C 6.70083 3.37301 11.89124 0.013777263549835729 -0.024847621871715526 -0.015913418878117258
C 4.38932 3.61281 8.5079 0.04230600738514005 0.01814511730010216 0.018279398810792533
C 2.98658 5.52637 1.48601 -0.011951676755330485 0.01082095059203128 -0.0026123733780694853
C 0.69464 5.75302 8.38304 0.02703338648801605 0.016174261441895675 0.015089313508309016
C 7.84339 1.31201 1.8911 0.0014360829020190066 0.007423657542059578 0.016761346818612785
C 5.649 1.47099 8.60371 0.03769236304637026 -0.017464764128269767 -0.0009158368522016506
C 2.89439 6.92448 11.72463 0.023873871863998173 -0.018844197929544233 -0.010085037351257193
C 0.54612 3.25183 4.90837 0.05919465424270709 -0.012207852039953842 -0.031037873109064584
C 7.94271 2.64049 11.78193 -0.004206832619416861 0.002024160075556568 0.009549758773161247
C 0.30216 7.34999 5.45402 -0.0006968636718434184 -0.004708176188656224 -0.011175197079900334
C 4.19838 4.898 1.55782 0.0117184878205458 -0.04409546166018653 0.013738427897866334
C 2.96643 5.46609 11.75215 -0.023676251485774343 -0.003797959518437125 0.014080111626009686
C 0.49271 1.75404 5.05034 -0.06006158189876301 0.012460585206200343 -0.001043117444159433
C 1.97042 5.0885 8.44932 -0.01627388840485973 -0.013596620399538429 0.01469973182783686
C 9.0847 0.56246 1.79468 0.014942955412804926 0.022664852092872837 -0.025013232493734244
C 7.90406 1.20714 11.79672 0.005361731399339983 0.007427080213439954 0.005815838214130843
C 6.89317 0.74942 8.57404 -0.0283833580896242 0.03711589572973091 -0.00825173009914962
C 4.14675 7.70918 1.51489 0.00742021542368272 -0.008512650450913954 0.0020476131533107445
C -0.76072 3.43543 1.62423 0.003776917868246396 -0.014787846168885097 -0.0014876952306753784
C 6.88406 3.6071 8.69778 0.009157824006115083 -0.02312420959671314 -0.014079994944030809
C 9.12456 0.49643 11.84834 -0.0046515659819046425 -0.013704026161094247 -0.012548155031347154
C -0.67296 4.69184 12.02843 0.019402112811542218 0.032468199700125676 0.00033596631117840313
C 6.51839 0.89469 5.39398 -0.00972902118670851 -0.010877463563800465 0.004080913317212638
C 1.88357 3.84954 4.63151 -0.05502689063921738 -0.0121592345487553 0.016416473783046812
C 3.2023 7.19192 8.49876 -0.007583239595169672 -0.013092612591781384 -0.00015188104250424451
C 0.46467 2.75178 1.62451 0.03293661950432539 -0.039035605987196534 0.0015473586158742292
C -0.66871 3.3216 11.80535 5.452937812828447e-05 -0.03626263931220003 -0.005001650812527102
C 1.60024 8.02683 5.25617 -0.01032248517827087 0.0005130312141234923 0.007941142118376857
C 8.13381 2.8826 8.60978 -0.012493722888201267 0.02997851742284483 0.0015336679303527198
C 5.45635 5.5948 1.52581 -0.0074163454713833165 0.000999245020101869 0.011668975767509205
C 3.21828 5.77261 8.54328 -0.012701864091520463 0.0054498457403882195 -0.012793478891934997
C 0.50044 1.28727 1.64114 -0.012296724813864776 0.002461406344399773 0.010775814113202555
C 8.13053 1.48438 8.50822 0.0015610104074027795 -0.027973143145887388 0.003458434406902989
C 5.45754 6.88559 11.77174 0.0004613022034882438 0.029392734994891843 0.0004818382317705079
C 2.97504 3.06785 4.95721 0.03844515628008849 -0.009804378298066251 0.008618967180666926
C 0.56789 2.57263 11.71426 -0.02848465749428548 0.02412615774932565 0.02131950887642679
C 2.83356 7.28259 5.07665 0.03432019551584997 0.03735414088360025 0.015058956746804646
C 6.67671 4.8962 1.64673 -0.015607789881446746 -0.00639903419155207 0.000352340682214072
C 5.45875 5.48272 11.75216 -0.014698934500981205 -0.010762823519554304 0.013535206784656428
C 4.45132 5.02691 8.55765 -0.027436794982985065 0.0068141692253981785 0.0013403842323437968
C 1.78935 0.57122 1.59968 -0.010840514270489572 0.018529953913433338 0.0037011523699625884
C 2.96696 5.86454 4.85894 -0.012663300697501781 0.0020605454059695566 -0.010842439523141035
C 9.34148 0.76012 8.39501 0.02480415783458403 0.03637720156846028 0.009447798170619666
C -3.18312 7.71665 1.59082 0.01151773647588878 -0.012931863718882526 0.005851115065744504
C 4.4185 7.88894 8.48173 0.013321523187340598 0.013053193529917607 -0.00236582435670344
C 1.73692 3.43056 1.64348 -0.018601129920548007 -0.02097461639386434 0.0008882415641973583
C -0.49797 3.64604 8.58808 -0.02145779646839192 -0.025062219477865893 -0.0016519640099370114
C 1.7503 0.51028 11.75024 0.00014536629868363993 -0.01816110273120824 -0.0017059877661568313
C 4.17831 5.23031 5.22563 -0.005804247804229109 -0.027521642228624767 -0.01646481901629464
C -1.90802 6.98988 1.62492 -0.0033171130834870675 0.009211108776468685 -0.012409809098392585
C -3.15083 7.64201 11.80451 -0.016757379631330983 -0.019487815725027013 -0.006045487795556274
C 4.18336 3.74058 5.22642 -0.02676904346487134 0.003952563140448488 -0.0004944787794821288
C 5.66053 7.19384 8.53395 -0.017603926835076472 -0.02703363929897028 -0.00043082876000499786
C -1.95358 5.56848 1.65318 0.008881443292149613 -0.006938591108873485 -0.011889699177550584
C 5.65085 5.75921 8.61779 0.01981946480298698 0.011438995587143622 -0.008851747728525544
C 3.07136 1.27261 1.67348 -0.013580362710481636 -0.014732149970968047 -0.012837273528006643
C 0.74129 1.52929 8.41956 -0.03523966895639327 -0.03527883520730282 0.009900504801664009
C -1.85235 6.93634 11.80085 -0.017366440114069837 0.005902143984506493 -0.002911584865901791
C -0.75274 4.8105 1.50534 0.013173609332118155 0.04224424372432142 0.021738513862572303
C -1.90004 5.46834 11.93768 0.0147251101582425 0.01763336958774631 -0.007741888192448753
C 5.23182 1.59853 5.52015 0.0015166323614367507 -0.05359679741211403 -0.02024856278030531
C 6.86872 4.98514 8.59628 0.01720728589488229 0.04500447261662391 0.0015557791653498167
C -0.59473 7.65338 1.4785 -0.003481517991724056 0.014603352513284873 0.004119457264234842
C 0.50498 5.50073 1.47205 -0.006426668373549322 -0.02118584966962376 0.002031841639165938
C -1.77019 5.76965 8.47437 -0.010862431035521876 -0.004965051565152839 0.015819742696075906
N 5.53679 1.35797 1.80382 -0.017306951751839304 0.013435385351727586 -0.0018178274429099567
N 0.4686 7.1034 11.13382 0.022743981921547588 0.001980287651499004 -0.006415758608524368
N 7.64137 2.99577 5.61459 0.0036108794123051366 -0.006309714136722109 0.020462829787515523
N 0.58192 6.8619 1.27942 -0.021371549039005712 0.015676768377959234 0.007592574153479791
N -0.69017 7.75324 11.54096 0.004747245204583373 0.0001961813004843558 0.014221141244478415
N 4.23393 3.32507 11.85051 -0.011835753209316683 0.0028187449047090553 -0.010070393762908192
N -3.26688 8.14033 5.33571 -0.024629076525279844 -0.010039609167481275 -0.006900961170685815
N 5.3503 7.4156 5.00511 -0.003729389408850702 -0.03456868923686396 0.008652454908604482
N 0.52418 5.3726 12.31233 -0.00031428291010385343 -0.02228581068449253 -0.013669799447290474
N 6.64636 0.75913 2.33558 0.014702882241266526 -0.01323278654240502 -0.00384982465804773
N 5.42907 1.24764 11.69823 0.024742374726768924 0.02234376273400119 0.004976992020991201
N 4.45193 0.76183 8.61488 -0.035670147670461644 0.030355964177513833 -0.004734799126836546
N 1.73712 7.46033 0.90887 0.01034856360054977 0.03605517875375761 0.006890693156544683
N -0.49474 4.03211 4.66493 -0.035694261946096116 0.05781568716934813 0.011077631498563102
N -0.94268 8.05045 5.14478 0.015848913190795032 -0.006721543181166716 0.00041142065751854
N 5.64302 2.89183 8.65606 -0.00792535115723557 -0.011884740193448332 0.0031479825551055805
N 6.65871 3.46874 1.71514 0.013416268954188317 -0.0011073703205274259 0.00583487682368419
N 0.26852 6.08753 5.74066 -0.012451931292767001 -0.02229290883820751 -0.020158406504626736
N 1.97585 7.89539 8.44187 -0.010150554282396348 -0.019327553027040135 0.00586958971239995
N 1.94529 5.1739 4.31543 0.0032065374615051043 -0.004500034985337027 0.01449001541780283
N 5.41296 7.03912 1.57795 0.01617638116451193 -0.013547886226361008 -0.008998708680920496
N 4.13405 7.62997 11.75909 0.042934067583439296 0.005220293393945184 0.006125901125998662
N 2.88417 1.6147 5.02298 -0.03599207325018191 0.015999607966514034 -0.008113656424145762
N 0.51374 1.18128 11.81868 -0.009441750154714568 -0.01028110196976267 -0.006944736359760982
N 5.28836 2.96743 5.59006 0.007908879551217503 0.053849958412283086 -0.015094778114319732
N -3.0244 7.9124 8.44671 0.009461800008084846 0.0061822779687924915 0.007981533530064604
