144
NON_ORTHO 10.862256697224 0.0 0.0 -5.431128347836 9.406990242672 0.0 0.0 0.0 19.63078101 3.552164 3.552165 -10.891229 1.000000000139778e-06 0.0 0.0 -16826.2318553534
Si 0.0 0.0 0.0 8.681336839312752e-08 -5.210807005449797e-09 -9.723498239708356e-08
Si -4.634470057496287e-06 1.5678319727504353 17.45585 7.969527365544972e-08 2.1354284213033443e-08 0.003968256866607377
Si 0.0 0.0 15.26212 -2.6054035027248984e-09 -4.340668419656376e-08 -0.003796870486634278
Si 1.3577846345670168 0.7839119726944555 6.54359 -7.25771789177719e-08 -4.7919375431516684e-08 7.448199651616601e-06
Si 0.0 0.0 4.36866 1.6841592978080527e-08 -9.723498240402713e-09 0.0037973955555392225
Si 1.3577846345670168 0.7839119726944555 2.17493 1.1630785972630734e-08 -9.653686663353026e-08 -0.003968451336572172
Si -4.634470057496287e-06 1.5678319727504353 13.08719 5.764287367191939e-08 -5.573558593969138e-08 -7.331517672740101e-06
Si 1.3577846345670168 0.7839119726944555 10.91225 5.764287367191939e-08 -5.573558593969138e-08 0.004416510135457932
Si -4.634470057496287e-06 1.5678319727504353 8.71853 2.1354284213033443e-08 -7.969527365544972e-08 -0.004416840734398082
Si -1.3577852432530941 2.351746972806415 0.0 1.6841592978080527e-08 -9.723498240402713e-09 -1.3612897535591697e-07
Si -1.357781217469114 3.91957394555685 17.45585 3.107778245343616e-08 -6.28536806773692e-08 0.0039682957606003355
Si -1.3577852432530941 2.351746972806415 15.26212 -2.6054035027248984e-09 -4.340668419656376e-08 -0.0037968510396377986
Si -6.086860773191205e-07 3.1356589455008703 6.54359 2.847237895071126e-08 -1.0626036487393296e-07 7.4870936445754345e-06
Si -1.3577852432530941 2.351746972806415 4.36866 -5.210807005449797e-09 -8.681336839312752e-08 0.0037973955555392225
Si -6.086860773191205e-07 3.1356589455008703 2.17493 -1.2328901743127616e-08 -6.02482771746443e-08 -0.003968431889575692
Si -1.357781217469114 3.91957394555685 13.08719 5.0524778934241586e-08 -2.9170494721208143e-08 -7.312070676260684e-06
Si -6.086860773191205e-07 3.1356589455008703 10.91225 1.423618947535563e-08 -5.313018243696648e-08 0.004416490688461453
Si -1.357781217469114 3.91957394555685 8.71853 -6.997177541504701e-08 -4.512691234952912e-09 -0.004416821287401603
Si -2.7155704865061883 4.70349394561283 0.0 -4.340668419656376e-08 2.6054035027248984e-09 -1.1668197887650028e-07
Si -2.715561460722208 6.271329578617301 17.45585 -2.3959687715758342e-08 3.628858945888595e-08 0.003968315207596815
Si -2.7155704865061883 4.70349394561283 15.26212 3.107778245343616e-08 -6.28536806773692e-08 -0.0037968899336307572
Si -1.3577808519391712 5.487414578561323 6.54359 -5.0524778934241586e-08 2.9170494721208143e-08 7.506540641054852e-06
Si -2.7155704865061883 4.70349394561283 4.36866 -2.6054035027248984e-09 -4.340668419656376e-08 0.0037973372145497838
Si -1.3577808519391712 5.487414578561323 2.17493 -1.1630785972630734e-08 9.653686663353026e-08 -0.003968451336572172
Si -2.715561460722208 6.271329578617301 13.08719 2.9170494721208143e-08 5.0524778934241586e-08 -7.350964669219518e-06
Si -1.3577808519391712 5.487414578561323 10.91225 3.177589822393304e-08 9.393146313080537e-08 0.004416490688461453
Si -2.715561460722208 6.271329578617301 8.71853 -2.1354284213033443e-08 7.969527365544972e-08 -0.004416685158426248
Si -4.073342069505245 7.055244578673282 0.0 -1.423618947535563e-08 5.313018243696648e-08 -1.1668197887650028e-07
Si -4.073346703975302 8.623076551423717 17.45585 -2.3959687715758342e-08 3.628858945888595e-08 0.003968315207596815
Si -4.073342069505245 7.055244578673282 15.26212 -8.872065612535556e-08 1.1858926661706059e-07 -0.003796909380627237
Si -2.715566095192265 7.839161551367738 6.54359 -7.118094737677815e-09 2.656509121848324e-08 7.428752655137184e-06
Si -4.073342069505245 7.055244578673282 4.36866 -3.819587719111396e-08 8.941877189585242e-08 0.0037973372145497838
Si -2.715566095192265 7.839161551367738 2.17493 -3.107778245343616e-08 6.28536806773692e-08 -0.003968431889575692
Si -4.073346703975302 8.623076551423717 13.08719 -4.7919375431516684e-08 7.25771789177719e-08 -7.389858662178352e-06
Si -2.715566095192265 7.839161551367738 10.91225 -1.1630785972630734e-08 9.653686663353026e-08 0.004416412900475536
Si -4.073346703975302 8.623076551423717 8.71853 3.368318595616105e-08 -1.9446996480805425e-08 -0.004416665711429769
Si 2.7155652433500537 -3.0273615241327434e-06 0.0 -4.340668419656376e-08 2.6054035027248984e-09 -1.1668197887650028e-07
Si 2.715560608879996 1.5678289453889112 17.45585 -1.423618947535563e-08 5.313018243696648e-08 0.003968315207596815
Si 2.7155652433500537 -3.0273615241327434e-06 15.26212 -6.73663719123221e-08 3.889399296161085e-08 -0.0037968899336307572
Si 4.073341217663033 0.7839139453329316 6.54359 9.723498240402713e-09 1.6841592978080527e-08 7.506540641054852e-06
Si 2.7155652433500537 -3.0273615241327434e-06 4.36866 -1.4934305245852512e-08 -1.0365496137120809e-07 0.0037972788735603454
Si 4.073341217663033 0.7839139453329316 2.17493 -2.4657803486255233e-08 -1.204965543492886e-07 -0.003968548571554569
Si 2.715560608879996 1.5678289453889112 13.08719 -3.889399296161085e-08 -6.73663719123221e-08 -7.350964669219518e-06
Si 4.073341217663033 0.7839139453329316 10.91225 4.080128069383888e-08 -4.601208769928866e-08 0.0044164517944684945
Si 2.715560608879996 1.5678289453889112 8.71853 2.3959687715758342e-08 -3.628858945888595e-08 -0.004416743499415686
Si 1.3577800000969593 2.3517439454448907 0.0 3.819587719111396e-08 -8.941877189585242e-08 -2.1391696127358382e-07
Si 1.3577803656269019 3.9195845784493635 17.45585 5.5037470169194516e-08 -9.914227013625515e-08 0.003968315207596815
Si 1.3577800000969593 2.3517439454448907 15.26212 -2.6054035027248984e-09 -4.340668419656376e-08 -0.0037967926986483603
Si 2.715569634663976 3.135664578393383 6.54359 4.340668419656376e-08 -2.6054035027248984e-09 7.506540641054852e-06
Si 1.3577800000969593 2.3517439454448907 4.36866 -4.861749120201357e-08 -8.420796489040266e-08 0.003797415002535702
Si 2.715569634663976 3.135664578393383 2.17493 -4.340668419656376e-08 2.6054035027248984e-09 -0.00396849023056513
Si 1.3577803656269019 3.9195845784493635 13.08719 -3.368318595616105e-08 1.9446996480805425e-08 -7.292623679781267e-06
Si 2.715569634663976 3.135664578393383 10.91225 -4.149939646433575e-08 -1.1077305610888589e-07 0.0044163740064825764
Si 1.3577803656269019 3.9195845784493635 8.71853 5.0524778934241586e-08 -2.9170494721208143e-08 -0.004416821287401603
Si -2.4315613478265163e-07 4.703499578505343 0.0 0.0 -0.0 -9.723498239708356e-08
Si 3.7826278456165596e-06 6.271326551255778 17.45585 -1.9446996480805425e-08 -3.368318595616105e-08 0.003968315207596815
Si -2.4315613478265163e-07 4.703499578505343 15.26212 -5.210807005449797e-09 -8.681336839312752e-08 -0.003796967721616675
Si 1.3577843914108823 5.4874115511997985 6.54359 5.313018243696648e-08 1.423618947535563e-08 7.467646648096018e-06
Si -2.4315613478265163e-07 4.703499578505343 4.36866 -2.656509121848324e-08 -7.118094737677815e-09 0.003797317767553304
Si 1.3577843914108823 5.4874115511997985 2.17493 -2.3959687715758342e-08 3.628858945888595e-08 -0.003968548571554569
Si 3.7826278456165596e-06 6.271326551255778 13.08719 3.368318595616105e-08 -1.9446996480805425e-08 -7.409305658657767e-06
Si 1.3577843914108823 5.4874115511997985 10.91225 -2.1354284213033443e-08 7.969527365544972e-08 0.004416510135457932
Si 3.7826278456165596e-06 6.271326551255778 8.71853 -1.8748880710308538e-08 1.2310195785201352e-07 -0.0044167240524192065
Si -1.3577854864092287 7.0552465513117575 0.0 -4.080128069383888e-08 4.601208769928866e-08 -1.1668197887650028e-07
Si -1.3577814606252487 8.623073524062193 17.45585 -7.448446664999994e-08 6.54590841800941e-08 0.003968354101589774
Si -1.3577854864092287 7.0552465513117575 15.26212 -1.6841592978080527e-08 9.723498240402713e-09 -0.003796909380627237
Si -8.518422118797275e-07 7.839158524006214 6.54359 -4.512691234952912e-09 6.997177541504701e-08 7.428752655137184e-06
Si -1.3577854864092287 7.0552465513117575 4.36866 7.8162105081747e-09 1.3022005258969133e-07 0.0037972983205568247
Si -8.518422118797275e-07 7.839158524006214 2.17493 -6.997177541504701e-08 -4.512691234952912e-09 -0.00396849023056513
Si -1.3577814606252487 8.623073524062193 13.08719 5.210807005449797e-09 8.681336839312752e-08 -7.389858662178352e-06
Si -8.518422118797275e-07 7.839158524006214 10.91225 -7.118094737677815e-09 2.656509121848324e-08 0.0044164517944684945
Si -1.3577814606252487 8.623073524062193 8.71853 -2.6054035027248984e-09 -4.340668419656376e-08 -0.004416685158426248
Si 5.431130486700107 -6.054723048265487e-06 0.0 -1.204965543492886e-07 2.4657803486255233e-08 -7.778798591766685e-08
Si 5.43113085223005 1.5678345782814245 17.45585 -1.0104955786848317e-07 5.8340989442416286e-08 0.003968256866607377
Si 5.431130486700107 -6.054723048265487e-06 15.26212 -1.9072877322280176e-09 1.1337845961161079e-07 -0.0037969288276237163
Si 6.788911461013086 0.7839195782254449 6.54359 -1.2328901743127616e-08 -6.02482771746443e-08 7.467646648096018e-06
Si 5.431130486700107 -6.054723048265487e-06 4.36866 4.512691234952912e-09 -6.997177541504701e-08 0.0037973372145497838
Si 6.788911461013086 0.7839195782254449 2.17493 -6.73663719123221e-08 3.889399296161085e-08 -0.003968451336572172
Si 5.43113085223005 1.5678345782814245 13.08719 4.512691234952912e-09 -6.997177541504701e-08 -7.312070676260684e-06
Si 6.788911461013086 0.7839195782254449 10.91225 -4.601208769928866e-08 -4.080128069383888e-08 0.004416510135457932
Si 5.43113085223005 1.5678345782814245 8.71853 -5.313018243696648e-08 -1.423618947535563e-08 -0.004416743499415686
Si 4.073350243447013 2.3517495783374036 0.0 -2.9170494721208143e-08 -5.0524778934241586e-08 -1.750229683147504e-07
Si 4.073345608976956 3.9195815510878393 17.45585 -3.889399296161085e-08 -6.73663719123221e-08 0.003968334654593295
Si 4.073350243447013 2.3517495783374036 15.26212 2.1354284213033443e-08 -7.969527365544972e-08 -0.0037968121456448396
Si 5.431126217759992 3.1356665510318598 6.54359 -5.764287367191939e-08 5.573558593969138e-08 7.4870936445754345e-06
Si 4.073350243447013 2.3517495783374036 4.36866 2.3959687715758342e-08 -3.628858945888595e-08 0.003797434449532181
Si 5.431126217759992 3.1356665510318598 2.17493 8.230067715817462e-08 6.476096840959723e-08 -0.00396849023056513
Si 4.073345608976956 3.9195815510878393 13.08719 -5.573558593969138e-08 -5.764287367191939e-08 -7.27317668330185e-06
Si 5.431126217759992 3.1356665510318598 10.91225 2.847237895071126e-08 -1.0626036487393296e-07 0.0044164517944684945
Si 4.073345608976956 3.9195815510878393 8.71853 4.601208769928866e-08 4.080128069383888e-08 -0.004416821287401603
Si 2.715565000193919 4.703496551143819 0.0 -9.723498240402713e-09 -1.6841592978080527e-08 -1.750229683147504e-07
Si 2.715560365723861 6.271328523894255 17.45585 5.0524778934241586e-08 -2.9170494721208143e-08 0.0039683735485862535
Si 2.715565000193919 4.703496551143819 15.26212 -2.9170494721208143e-08 -5.0524778934241586e-08 -0.0037968899336307572
Si 4.073349634760936 5.487408523838274 6.54359 7.708987015272482e-08 -2.2052399983530324e-08 7.467646648096018e-06
Si 2.715565000193919 4.703496551143819 4.36866 4.601208769928866e-08 4.080128069383888e-08 0.003797434449532181
Si 4.073349634760936 5.487408523838274 2.17493 7.969527365544972e-08 2.1354284213033443e-08 -0.00396849023056513
Si 2.715560365723861 6.271328523894255 13.08719 -1.0365496137120809e-07 1.4934305245852512e-08 -7.350964669219518e-06
Si 4.073349634760936 5.487408523838274 10.91225 -4.512691234952912e-09 6.997177541504701e-08 0.0044163740064825764
Si 2.715560365723861 6.271328523894255 8.71853 5.573558593969138e-08 5.764287367191939e-08 -0.004416782393408644
Si 1.3577797569408245 7.055243523950234 0.0 -1.9446996480805425e-08 -3.368318595616105e-08 -7.778798591766685e-08
Si 1.357783782724805 8.623070496700668 17.45585 7.25771789177719e-08 4.7919375431516684e-08 0.003968276313603856
Si 1.3577797569408245 7.055243523950234 15.26212 1.9446996480805425e-08 3.368318595616105e-08 -0.0037969482746201956
Si 2.715564391507842 7.839155496644689 6.54359 5.573558593969138e-08 5.764287367191939e-08 7.506540641054852e-06
Si 1.3577797569408245 7.055243523950234 4.36866 -2.1354284213033443e-08 7.969527365544972e-08 0.003797317767553304
Si 2.715564391507842 7.839155496644689 2.17493 4.512691234952912e-09 -6.997177541504701e-08 -0.003968451336572172
Si 1.357783782724805 8.623070496700668 13.08719 -1.6841592978080527e-08 9.723498240402713e-09 -7.350964669219518e-06
Si 2.715564391507842 7.839155496644689 10.91225 -5.764287367191939e-08 5.573558593969138e-08 0.004416471241464974
Si 1.357783782724805 8.623070496700668 8.71853 -1.6841592978080527e-08 9.723498240402713e-09 -0.004416801840405124
Si 8.146692069796124 4.5781694648638904e-06 0.0 2.656509121848324e-08 7.118094737677815e-09 -1.9446996479416713e-07
Si 8.146696095580102 1.5678315509199003 17.45585 3.368318595616105e-08 -1.9446996480805425e-08 0.0039682374196108984
Si 8.146692069796124 4.5781694648638904e-06 15.26212 7.25771789177719e-08 4.7919375431516684e-08 -0.0037968315926413193
Si 9.504476704363139 0.7839165508639212 6.54359 4.340668419656376e-08 -2.6054035027248984e-09 7.428752655137184e-06
Si 8.146692069796124 4.5781694648638904e-06 4.36866 9.723498240402713e-09 1.6841592978080527e-08 0.003797356661546263
Si 9.504476704363139 0.7839165508639212 2.17493 1.3282545609241623e-07 3.559047368838909e-08 -0.003968412442579213
Si 8.146696095580102 1.5678315509199003 13.08719 -4.340668419656376e-08 2.6054035027248984e-09 -7.312070676260684e-06
Si 9.504476704363139 0.7839165508639212 10.91225 -2.6054035027248984e-09 -4.340668419656376e-08 0.004416471241464974
Si 8.146696095580102 1.5678315509199003 8.71853 -2.6054035027248984e-09 -4.340668419656376e-08 -0.004416801840405124
Si 6.788915486797066 2.35174655097588 0.0 -3.368318595616105e-08 1.9446996480805425e-08 -1.1668197887650028e-07
Si 6.7889108523270085 3.9195785237263157 17.45585 -2.656509121848324e-08 -7.118094737677815e-09 0.0039682957606003355
Si 6.788915486797066 2.35174655097588 15.26212 -3.177589822393304e-08 -9.393146313080537e-08 -0.003796909380627237
Si 8.146691461110045 3.135663523670336 6.54359 2.3959687715758342e-08 -3.628858945888595e-08 7.467646648096018e-06
Si 6.788915486797066 2.35174655097588 4.36866 7.118094737677815e-09 -2.656509121848324e-08 0.003797317767553304
Si 8.146691461110045 3.135663523670336 2.17493 -9.723498240402713e-09 -1.6841592978080527e-08 -0.003968470783568651
Si 6.7889108523270085 3.9195785237263157 13.08719 4.531397192879181e-08 -1.1598386311433568e-07 -7.331517672740101e-06
Si 8.146691461110045 3.135663523670336 10.91225 -3.628858945888595e-08 -2.3959687715758342e-08 0.004416529582454413
Si 6.7889108523270085 3.9195785237263157 8.71853 -4.340668419656376e-08 2.6054035027248984e-09 -0.004416743499415686
Si 5.431130243543972 4.703493523782295 0.0 5.313018243696648e-08 1.423618947535563e-08 -1.555759718353337e-07
Si 5.431125609073915 6.27132549653273 17.45585 -1.423618947535563e-08 5.313018243696648e-08 0.003968276313603856
Si 5.431130243543972 4.703493523782295 15.26212 4.340668419656376e-08 -2.6054035027248984e-09 -0.0037968121456448396
Si 6.788906217856951 5.48741049647675 6.54359 -9.393146313080537e-08 3.177589822393304e-08 7.506540641054852e-06
Si 5.431130243543972 4.703493523782295 4.36866 9.723498240402713e-09 1.6841592978080527e-08 0.0037974538965286605
Si 6.788906217856951 5.48741049647675 2.17493 -5.764287367191939e-08 5.573558593969138e-08 -0.00396849023056513
Si 5.431125609073915 6.27132549653273 13.08719 2.4657803486255233e-08 1.204965543492886e-07 -7.331517672740101e-06
Si 6.788906217856951 5.48741049647675 10.91225 4.340668419656376e-08 -2.6054035027248984e-09 0.004416412900475536
Si 5.431125609073915 6.27132549653273 8.71853 -0.0 0.0 -0.004416762946412165
Si 4.073345000290878 7.055240496588709 0.0 6.02482771746443e-08 -1.2328901743127616e-08 -1.555759718353337e-07
Si 4.073340365820821 8.623072469339144 17.45585 4.601208769928866e-08 4.080128069383888e-08 0.003968217972614418
Si 4.073345000290878 7.055240496588709 15.26212 5.8340989442416286e-08 1.0104955786848317e-07 -0.0037968315926413193
Si 5.431129634857895 7.839152469283165 6.54359 0.0 0.0 7.428752655137184e-06
Si 4.073345000290878 7.055240496588709 4.36866 1.2328901743127616e-08 6.02482771746443e-08 0.0037973761085427424
Si 5.431129634857895 7.839152469283165 2.17493 1.1337845961161079e-07 1.9072877322280176e-09 -0.003968470783568651
Si 4.073340365820821 8.623072469339144 13.08719 3.889399296161085e-08 6.73663719123221e-08 -7.312070676260684e-06
Si 5.431129634857895 7.839152469283165 10.91225 6.54590841800941e-08 7.448446664999994e-08 0.004416490688461453
Si 4.073340365820821 8.623072469339144 8.71853 -3.628858945888595e-08 -2.3959687715758342e-08 -0.004416801840405124
