108
NON_ORTHO 11.464983246 0.0 0.0 0.0 11.464983246 0.0 0.0 0.0 11.464983246 -6.849698999999999 -6.849697999999999 -6.849698999999999 -9e-06 -4.000000000000001e-06 1e-05 -12709.9693251346
Si 0.0 0.0 0.0 -6.028568908619182e-07 -3.889399295883342e-08 -3.889399295883342e-08
Si 0.0 1.91083 1.91083 -9.723498239708356e-08 -3.111519436706674e-07 -1.555759718353337e-07
Si 1.91083 0.0 1.91083 -1.555759718353337e-07 -7.778798591766685e-08 3.305989401500841e-07
Si 1.91083 1.91083 0.0 -7.389858662178351e-07 -7.584328626972518e-07 5.639628979030847e-07
Si 0.0 0.0 3.82166 8.362208486149188e-07 -4.2783392254716764e-07 6.223038873413348e-07
Si 0.0 1.91083 5.73249 1.2446077746826695e-06 -2.917049471912507e-07 2.917049471912507e-07
Si 1.91083 0.0 5.73249 1.3612897535591697e-07 6.223038873413348e-07 9.723498239708356e-08
Si 1.91083 1.91083 3.82166 2.7225795071183395e-07 -2.3336395775300056e-07 9.140088345325855e-07
Si 0.0 0.0 7.64332 5.056219084648345e-07 2.7225795071183395e-07 -2.1391696127358382e-07
Si 0.0 1.91083 9.55415 -2.7225795071183395e-07 -1.011243816929669e-06 -5.639628979030847e-07
Si 1.91083 0.0 9.55415 -1.0306908134090857e-06 -1.1084787993267528e-06 -6.417508838207516e-07
Si 1.91083 1.91083 7.64332 -1.1668197887650028e-07 -4.4728091902658436e-07 -1.497418728915087e-06
Si 0.0 3.82166 0.0 -1.750229683147504e-07 -1.750229683147504e-07 1.011243816929669e-06
Si 0.0 5.73249 1.91083 -1.0306908134090857e-06 9.723498239708356e-08 1.2057137817238363e-06
Si 1.91083 3.82166 1.91083 -5.445159014236679e-07 -1.3612897535591697e-07 8.556678450943353e-07
Si 1.91083 5.73249 0.0 1.2251607782032527e-06 9.140088345325855e-07 -6.806448767795849e-07
Si 0.0 3.82166 3.82166 3.889399295883342e-08 5.639628979030847e-07 1.1668197887650028e-07
Si 0.0 5.73249 5.73249 -3.111519436706674e-07 -2.1391696127358382e-07 -7.195388697384184e-07
Si 1.91083 3.82166 5.73249 5.834098943825014e-08 -7.778798591766685e-07 3.111519436706674e-07
Si 1.91083 5.73249 3.82166 -1.7891236761063374e-06 -6.223038873413348e-07 1.555759718353337e-07
Si 0.0 3.82166 7.64332 3.6949293310891754e-07 -5.834098943825014e-07 -9.723498239708357e-07
Si 0.0 5.73249 9.55415 1.6529947007504207e-06 -1.750229683147504e-07 -1.555759718353337e-07
Si 1.91083 3.82166 9.55415 5.834098943825014e-07 7.778798591766685e-07 -7.000918732590016e-07
Si 1.91083 5.73249 7.64332 1.41963074299742e-06 1.555759718353337e-07 -5.834098943825014e-08
Si 0.0 7.64332 0.0 7.584328626972518e-07 6.223038873413348e-07 1.0695848063679192e-06
Si 0.0 9.55415 1.91083 -5.056219084648345e-07 -7.778798591766685e-08 2.3336395775300056e-07
Si 1.91083 7.64332 1.91083 -6.611978803001682e-07 3.500459366295008e-07 -7.778798591766685e-07
Si 1.91083 9.55415 0.0 3.889399295883342e-08 -2.917049471912507e-07 -4.083869260677509e-07
Si 0.0 7.64332 3.82166 -8.556678450943353e-07 -5.445159014236679e-07 -3.6949293310891754e-07
Si 0.0 9.55415 5.73249 6.417508838207516e-07 7.195388697384184e-07 -3.6949293310891754e-07
Si 1.91083 7.64332 5.73249 -3.111519436706674e-07 1.555759718353337e-07 9.723498239708357e-07
Si 1.91083 9.55415 3.82166 -8.167738521355018e-07 1.0501378098885024e-06 4.083869260677509e-07
Si 0.0 7.64332 7.64332 1.4001837465180033e-06 4.2783392254716764e-07 -8.362208486149188e-07
Si 0.0 9.55415 9.55415 1.3223957606003364e-06 1.3807367500385869e-06 1.944699647941671e-08
Si 1.91083 7.64332 9.55415 1.8669116620240045e-06 1.1668197887650028e-07 -1.3612897535591697e-07
Si 1.91083 9.55415 7.64332 7.973268556560852e-07 1.555759718353337e-07 1.1668197887650028e-07
Si 3.82166 0.0 0.0 -3.889399295883342e-08 -8.751148415737522e-07 6.611978803001682e-07
Si 3.82166 1.91083 1.91083 -1.9446996479416713e-07 -5.445159014236679e-07 9.334558310120023e-07
Si 5.73249 0.0 1.91083 4.2783392254716764e-07 -2.3336395775300056e-07 -1.1668197887650028e-07
Si 5.73249 1.91083 0.0 7.584328626972518e-07 -3.889399295883342e-08 1.0695848063679192e-06
Si 3.82166 0.0 3.82166 -3.6949293310891754e-07 4.6672791550600113e-07 6.806448767795849e-07
Si 3.82166 1.91083 5.73249 -1.3418427570797532e-06 -5.250689049442512e-07 -1.555759718353337e-07
Si 5.73249 0.0 5.73249 -1.0695848063679192e-06 9.723498239708356e-08 -3.111519436706674e-07
Si 5.73249 1.91083 3.82166 -8.362208486149188e-07 -4.6672791550600113e-07 -1.555759718353337e-07
Si 3.82166 0.0 7.64332 -1.3418427570797532e-06 -6.611978803001682e-07 -1.2251607782032527e-06
Si 3.82166 1.91083 9.55415 -4.861749119854178e-07 5.834098943825014e-07 -8.945618380531687e-07
Si 5.73249 0.0 9.55415 3.889399295883342e-08 -1.2640547711620864e-06 5.056219084648345e-07
Si 5.73249 1.91083 7.64332 -2.5281095423241723e-07 4.6672791550600113e-07 -5.250689049442512e-07
Si 3.82166 3.82166 0.0 4.4728091902658436e-07 1.5363127218739202e-06 -7.000918732590016e-07
Si 3.82166 5.73249 1.91083 -1.3612897535591697e-07 9.723498239708356e-08 -1.6529947007504207e-06
Si 5.73249 3.82166 1.91083 6.417508838207516e-07 0.0 -3.8893992958833426e-07
Si 5.73249 5.73249 0.0 -6.223038873413348e-07 6.611978803001682e-07 -9.917968204502523e-07
Si 3.82166 3.82166 3.82166 -5.834098943825014e-07 -1.2057137817238363e-06 6.223038873413348e-07
Si 3.82166 5.73249 5.73249 -4.4728091902658436e-07 -7.389858662178351e-07 2.119722616256422e-06
Si 5.73249 3.82166 5.73249 -4.861749119854178e-07 4.083869260677509e-07 4.2783392254716764e-07
Si 5.73249 5.73249 3.82166 1.2640547711620864e-06 -6.806448767795849e-07 -0.0
Si 3.82166 3.82166 7.64332 -4.083869260677509e-07 1.1084787993267528e-06 -3.305989401500841e-07
Si 3.82166 5.73249 9.55415 7.973268556560852e-07 1.2640547711620864e-06 -5.834098943825014e-08
Si 5.73249 3.82166 9.55415 -2.5281095423241723e-07 1.8085706725857543e-06 -1.750229683147504e-07
Si 5.73249 5.73249 7.64332 -9.52902827491419e-07 2.1391696127358382e-07 9.52902827491419e-07
Si 3.82166 7.64332 0.0 3.111519436706674e-07 -6.028568908619182e-07 -1.5168657253945036e-06
Si 3.82166 9.55415 1.91083 3.889399295883342e-08 2.5281095423241723e-07 -7.584328626972518e-07
Si 5.73249 7.64332 1.91083 8.751148415737522e-07 4.4728091902658436e-07 -1.7113356901886706e-06
Si 5.73249 9.55415 0.0 -1.944699647941671e-08 -5.445159014236679e-07 2.7225795071183395e-07
Si 3.82166 7.64332 3.82166 -5.056219084648345e-07 6.223038873413348e-07 5.834098943825014e-08
Si 3.82166 9.55415 5.73249 -9.723498239708357e-07 1.2251607782032527e-06 8.751148415737522e-07
Si 5.73249 7.64332 5.73249 3.8893992958833426e-07 -1.9446996479416713e-07 1.3418427570797532e-06
Si 5.73249 9.55415 3.82166 3.8893992958833426e-07 9.917968204502523e-07 -5.834098943825014e-07
Si 3.82166 7.64332 7.64332 -3.8893992958833426e-07 -4.4728091902658436e-07 1.5946537113121705e-06
Si 3.82166 9.55415 9.55415 -3.111519436706674e-07 -1.6141007077915873e-06 -4.861749119854178e-07
Si 5.73249 7.64332 9.55415 -1.905805654982838e-06 -8.945618380531687e-07 1.555759718353337e-07
Si 5.73249 9.55415 7.64332 -9.723498239708357e-07 -6.611978803001682e-07 5.250689049442512e-07
Si 7.64332 0.0 0.0 7.195388697384184e-07 -3.8893992958833426e-07 7.195388697384184e-07
Si 7.64332 1.91083 1.91083 -1.1668197887650028e-07 -3.8893992958833426e-07 -7.195388697384184e-07
Si 9.55415 0.0 1.91083 -1.1668197887650028e-07 -7.973268556560852e-07 -1.0306908134090857e-06
Si 9.55415 1.91083 0.0 -1.944699647941671e-08 -1.1668197887650029e-06 1.555759718353337e-07
Si 7.64332 0.0 3.82166 -1.9446996479416713e-07 -8.362208486149188e-07 -9.334558310120023e-07
Si 7.64332 1.91083 5.73249 5.834098943825014e-08 9.723498239708356e-08 3.305989401500841e-07
Si 9.55415 0.0 5.73249 1.0501378098885024e-06 -2.3336395775300056e-07 5.834098943825014e-07
Si 9.55415 1.91083 3.82166 6.611978803001682e-07 4.6672791550600113e-07 -1.9446996479416713e-07
Si 7.64332 0.0 7.64332 4.861749119854178e-07 0.0 -1.750229683147504e-07
Si 7.64332 1.91083 9.55415 8.945618380531687e-07 3.111519436706674e-07 3.111519436706674e-07
Si 9.55415 0.0 9.55415 7.195388697384184e-07 3.8893992958833426e-07 8.167738521355018e-07
Si 9.55415 1.91083 7.64332 6.806448767795849e-07 -2.1391696127358382e-07 1.9446996479416713e-07
Si 7.64332 3.82166 0.0 -1.750229683147504e-07 4.2783392254716764e-07 1.555759718353337e-07
Si 7.64332 5.73249 1.91083 7.000918732590016e-07 2.5281095423241723e-07 9.723498239708356e-08
Si 9.55415 3.82166 1.91083 1.750229683147504e-07 9.334558310120023e-07 2.7225795071183395e-07
Si 9.55415 5.73249 0.0 -8.945618380531687e-07 -3.305989401500841e-07 1.9446996479416714e-06
Si 7.64332 3.82166 3.82166 7.778798591766685e-07 1.0890318028473358e-06 -9.723498239708356e-08
Si 7.64332 5.73249 5.73249 9.334558310120023e-07 1.1668197887650028e-07 -4.083869260677509e-07
Si 9.55415 3.82166 5.73249 4.083869260677509e-07 9.334558310120023e-07 -4.2783392254716764e-07
Si 9.55415 5.73249 3.82166 1.3612897535591697e-07 3.500459366295008e-07 -3.889399295883342e-08
Si 7.64332 3.82166 7.64332 -4.2783392254716764e-07 2.3336395775300056e-07 5.834098943825014e-08
Si 7.64332 5.73249 9.55415 -1.9446996479416714e-06 -2.7225795071183395e-07 4.6672791550600113e-07
Si 9.55415 3.82166 9.55415 -4.861749119854178e-07 -1.3029487641209198e-06 -1.555759718353337e-07
Si 9.55415 5.73249 7.64332 -1.3612897535591697e-07 -4.861749119854178e-07 -2.0030406373799214e-06
Si 7.64332 7.64332 0.0 -1.011243816929669e-06 -2.1391696127358382e-07 1.2057137817238363e-06
Si 7.64332 9.55415 1.91083 4.2783392254716764e-07 3.889399295883342e-08 -3.889399295883342e-08
Si 9.55415 7.64332 1.91083 -1.944699647941671e-08 -1.944699647941671e-08 9.140088345325855e-07
Si 9.55415 9.55415 0.0 -9.723498239708356e-08 1.3223957606003364e-06 1.3612897535591698e-06
Si 7.64332 7.64332 3.82166 1.6529947007504207e-06 -2.5281095423241723e-07 -5.445159014236679e-07
Si 7.64332 9.55415 5.73249 4.861749119854178e-07 -2.917049471912507e-07 -3.500459366295008e-07
Si 9.55415 7.64332 5.73249 -1.750229683147504e-07 -8.362208486149188e-07 -1.4779717324356702e-06
Si 9.55415 9.55415 3.82166 3.889399295883342e-08 -7.000918732590016e-07 -9.334558310120023e-07
Si 7.64332 7.64332 7.64332 -1.2640547711620864e-06 -5.639628979030847e-07 -5.834098943825014e-07
Si 7.64332 9.55415 9.55415 -7.000918732590016e-07 5.639628979030847e-07 6.028568908619182e-07
Si 9.55415 7.64332 9.55415 -2.917049471912507e-07 4.4728091902658436e-07 4.6672791550600113e-07
Si 9.55415 9.55415 7.64332 4.4728091902658436e-07 1.1279257958061694e-06 -5.445159014236679e-07
